New line.
Another line.

Hello, Git!
add