New line.
Another line.

Hello, Git!
Hello, again!
Hello, Git, Again!